9
 xtb: 6.7.1 (ea5eb53a1b02924b06669d6067ddfd9e01a3be43)
C            0.11956441965385       -0.39986544791316       -0.37789512307093
C           -1.24195506184665        0.18940205610789       -0.33025341411532
O            1.07072774996846        0.13940511036252        0.62575657294190
H            0.20104255990984       -1.55703855952632       -0.14432136315631
H            0.55921314813093       -0.40163937609892       -1.35313360598087
H           -1.30396604995772        1.22487681321497       -0.42753771088356
H           -1.76046136218299       -0.26830739468877       -1.25273941500151
H           -1.71098575224279       -0.02701044723092        0.71801053247934
H            0.96840212786071        1.11788495625737        0.57151234104642
