 xtb: 6.7.1 (baa56fa910d625796340f15fc3eb0af80e24f44d)
          04052514393D

  4  2  0     0  0            999 V2000
   -0.0000   -1.4300   -0.0035 NA  0  0  0  0  0  0  0  0  0  0  0  0
    0.0000    1.1386    0.0028 LI  0  0  0  0  0  0  0  0  0  0  0  0
   -1.4397    0.1457    0.0004 H   0  0  0  0  0  0  0  0  0  0  0  0
    1.4397    0.1457    0.0004 H   0  0  0  0  0  0  0  0  0  0  0  0
  2  3  1  0  0  0  0
  2  4  1  0  0  0  0
M  END
