 xtb: 6.7.1 (40a19bb6985c41aa8a315c16dba23e46602a15b7)
          03132519383D

  9  8  0     0  0            999 V2000
    0.4785    0.2192    0.0134 C   0  0  0  0  0  0  0  0  0  0  0  0
   -0.7227    0.9646   -0.5001 C   0  0  0  0  0  0  0  0  0  0  0  0
    0.2274   -1.0725    0.4941 O   0  0  0  0  0  0  0  0  0  0  0  0
    1.3436    0.3116   -0.7447 H   0  0  0  0  0  0  0  0  0  0  0  0
    0.8682    0.7608    0.9054 H   0  0  0  0  0  0  0  0  0  0  0  0
   -1.0538    0.5982   -1.4582 H   0  0  0  0  0  0  0  0  0  0  0  0
   -1.7002    1.0615    0.1562 H   0  0  0  0  0  0  0  0  0  0  0  0
   -0.4883    1.9726   -0.7393 H   0  0  0  0  0  0  0  0  0  0  0  0
    0.3296   -1.7873   -0.1640 H   0  0  0  0  0  0  0  0  0  0  0  0
  1  2  1  0  0  0  0
  1  3  1  0  0  0  0
  1  4  1  0  0  0  0
  1  5  1  0  0  0  0
  2  6  1  0  0  0  0
  2  7  1  0  0  0  0
  2  8  1  0  0  0  0
  3  9  1  0  0  0  0
M  END
